<?xml version="1.0" encoding="UTF-8"?>

<!-- generated on 2024-05-31 23:28:17 by Eclipse SUMO netedit Version 1.19.0
<configuration xmlns:xsi="http://www.w3.org/2001/XMLSchema-instance" xsi:noNamespaceSchemaLocation="http://sumo.dlr.de/xsd/neteditConfiguration.xsd">

    <input>
        <sumocfg-file value="/home/abdelazizwf/Workspace/github.com/abdelazizwf/rl-traffic-controller/simulation/v1.sumocfg"/>
        <additional-files value="/home/abdelazizwf/Workspace/github.com/abdelazizwf/rl-traffic-controller/simulation/v1.add.xml"/>
        <route-files value="/home/abdelazizwf/Workspace/github.com/abdelazizwf/rl-traffic-controller/simulation/v1.rou.xml"/>
        <sumo-net-file value="/home/abdelazizwf/Workspace/github.com/abdelazizwf/rl-traffic-controller/simulation/v1.net.xml"/>
    </input>

    <output>
        <output-file value="/home/abdelazizwf/Workspace/github.com/abdelazizwf/rl-traffic-controller/simulation/v1.net.xml"/>
    </output>

    <processing>
        <geometry.min-radius.fix.railways value="false"/>
        <geometry.max-grade.fix value="false"/>
        <offset.disable-normalization value="true"/>
        <lefthand value="0"/>
    </processing>

    <junctions>
        <no-turnarounds value="true"/>
        <junctions.corner-detail value="5"/>
        <junctions.limit-turn-speed value="5.50"/>
        <rectangular-lane-cut value="0"/>
    </junctions>

    <pedestrian>
        <walkingareas value="0"/>
    </pedestrian>

</configuration>
-->

<net version="1.16" junctionCornerDetail="5" limitTurnSpeed="5.50" xmlns:xsi="http://www.w3.org/2001/XMLSchema-instance" xsi:noNamespaceSchemaLocation="http://sumo.dlr.de/xsd/net_file.xsd">

    <location netOffset="0.00,0.00" convBoundary="-300.00,-300.00,300.00,300.00" origBoundary="-10000000000.00,-10000000000.00,10000000000.00,10000000000.00" projParameter="!"/>

    <edge id=":J5_0" function="internal">
        <lane id=":J5_0_0" index="0" disallow="pedestrian tram rail_urban rail rail_electric rail_fast ship" speed="6.51" length="9.03" shape="-11.20,16.80 -11.55,14.35 -12.60,12.60 -14.35,11.55 -16.80,11.20"/>
    </edge>
    <edge id=":J5_1" function="internal">
        <lane id=":J5_1_0" index="0" disallow="pedestrian tram rail_urban rail rail_electric rail_fast ship" speed="13.89" length="33.60" shape="-11.20,16.80 -11.20,-16.80"/>
    </edge>
    <edge id=":J5_2" function="internal">
        <lane id=":J5_2_0" index="0" disallow="pedestrian tram rail_urban rail rail_electric rail_fast ship" speed="8.00" length="4.07" shape="-8.00,16.80 -8.55,12.95 -8.64,12.80"/>
    </edge>
    <edge id=":J5_3" function="internal">
        <lane id=":J5_3_0" index="0" disallow="pedestrian tram rail_urban rail rail_electric rail_fast ship" speed="13.89" length="33.60" shape="-8.00,16.80 -8.00,-16.80"/>
        <lane id=":J5_3_1" index="1" disallow="pedestrian tram rail_urban rail rail_electric rail_fast ship" speed="13.89" length="33.60" shape="-4.80,16.80 -4.80,-16.80"/>
    </edge>
    <edge id=":J5_5" function="internal">
        <lane id=":J5_5_0" index="0" disallow="pedestrian tram rail_urban rail rail_electric rail_fast ship" speed="11.36" length="29.67" shape="-1.60,16.80 -0.45,8.75 3.00,3.00 8.75,-0.45 16.80,-1.60"/>
    </edge>
    <edge id=":J5_24" function="internal">
        <lane id=":J5_24_0" index="0" disallow="pedestrian tram rail_urban rail rail_electric rail_fast ship" speed="8.00" length="10.13" shape="-8.64,12.80 -10.20,10.20 -12.95,8.55 -16.80,8.00"/>
    </edge>
    <edge id=":J5_6" function="internal">
        <lane id=":J5_6_0" index="0" disallow="pedestrian tram rail_urban rail rail_electric rail_fast ship" speed="6.51" length="9.03" shape="16.80,11.20 14.35,11.55 12.60,12.60 11.55,14.35 11.20,16.80"/>
    </edge>
    <edge id=":J5_7" function="internal">
        <lane id=":J5_7_0" index="0" disallow="pedestrian tram rail_urban rail rail_electric rail_fast ship" speed="13.89" length="33.60" shape="16.80,11.20 -16.80,11.20"/>
    </edge>
    <edge id=":J5_8" function="internal">
        <lane id=":J5_8_0" index="0" disallow="pedestrian tram rail_urban rail rail_electric rail_fast ship" speed="8.00" length="4.07" shape="16.80,8.00 12.95,8.55 12.80,8.64"/>
    </edge>
    <edge id=":J5_9" function="internal">
        <lane id=":J5_9_0" index="0" disallow="pedestrian tram rail_urban rail rail_electric rail_fast ship" speed="13.89" length="33.60" shape="16.80,8.00 -16.80,8.00"/>
        <lane id=":J5_9_1" index="1" disallow="pedestrian tram rail_urban rail rail_electric rail_fast ship" speed="13.89" length="33.60" shape="16.80,4.80 -16.80,4.80"/>
    </edge>
    <edge id=":J5_11" function="internal">
        <lane id=":J5_11_0" index="0" disallow="pedestrian tram rail_urban rail rail_electric rail_fast ship" speed="11.36" length="29.67" shape="16.80,1.60 8.75,0.45 3.00,-3.00 -0.45,-8.75 -1.60,-16.80"/>
    </edge>
    <edge id=":J5_25" function="internal">
        <lane id=":J5_25_0" index="0" disallow="pedestrian tram rail_urban rail rail_electric rail_fast ship" speed="8.00" length="10.13" shape="12.80,8.64 10.20,10.20 8.55,12.95 8.00,16.80"/>
    </edge>
    <edge id=":J5_12" function="internal">
        <lane id=":J5_12_0" index="0" disallow="pedestrian tram rail_urban rail rail_electric rail_fast ship" speed="6.51" length="9.03" shape="11.20,-16.80 11.55,-14.35 12.60,-12.60 14.35,-11.55 16.80,-11.20"/>
    </edge>
    <edge id=":J5_13" function="internal">
        <lane id=":J5_13_0" index="0" disallow="pedestrian tram rail_urban rail rail_electric rail_fast ship" speed="13.89" length="33.60" shape="11.20,-16.80 11.20,16.80"/>
    </edge>
    <edge id=":J5_14" function="internal">
        <lane id=":J5_14_0" index="0" disallow="pedestrian tram rail_urban rail rail_electric rail_fast ship" speed="8.00" length="4.07" shape="8.00,-16.80 8.55,-12.95 8.64,-12.80"/>
    </edge>
    <edge id=":J5_15" function="internal">
        <lane id=":J5_15_0" index="0" disallow="pedestrian tram rail_urban rail rail_electric rail_fast ship" speed="13.89" length="33.60" shape="8.00,-16.80 8.00,16.80"/>
        <lane id=":J5_15_1" index="1" disallow="pedestrian tram rail_urban rail rail_electric rail_fast ship" speed="13.89" length="33.60" shape="4.80,-16.80 4.80,16.80"/>
    </edge>
    <edge id=":J5_17" function="internal">
        <lane id=":J5_17_0" index="0" disallow="pedestrian tram rail_urban rail rail_electric rail_fast ship" speed="11.36" length="29.67" shape="1.60,-16.80 0.45,-8.75 -3.00,-3.00 -8.75,0.45 -16.80,1.60"/>
    </edge>
    <edge id=":J5_26" function="internal">
        <lane id=":J5_26_0" index="0" disallow="pedestrian tram rail_urban rail rail_electric rail_fast ship" speed="8.00" length="10.13" shape="8.64,-12.80 10.20,-10.20 12.95,-8.55 16.80,-8.00"/>
    </edge>
    <edge id=":J5_18" function="internal">
        <lane id=":J5_18_0" index="0" disallow="pedestrian tram rail_urban rail rail_electric rail_fast ship" speed="6.51" length="9.03" shape="-16.80,-11.20 -14.35,-11.55 -12.60,-12.60 -11.55,-14.35 -11.20,-16.80"/>
    </edge>
    <edge id=":J5_19" function="internal">
        <lane id=":J5_19_0" index="0" disallow="pedestrian tram rail_urban rail rail_electric rail_fast ship" speed="13.89" length="33.60" shape="-16.80,-11.20 16.80,-11.20"/>
    </edge>
    <edge id=":J5_20" function="internal">
        <lane id=":J5_20_0" index="0" disallow="pedestrian tram rail_urban rail rail_electric rail_fast ship" speed="8.00" length="4.07" shape="-16.80,-8.00 -12.95,-8.55 -12.80,-8.64"/>
    </edge>
    <edge id=":J5_21" function="internal">
        <lane id=":J5_21_0" index="0" disallow="pedestrian tram rail_urban rail rail_electric rail_fast ship" speed="13.89" length="33.60" shape="-16.80,-8.00 16.80,-8.00"/>
        <lane id=":J5_21_1" index="1" disallow="pedestrian tram rail_urban rail rail_electric rail_fast ship" speed="13.89" length="33.60" shape="-16.80,-4.80 16.80,-4.80"/>
    </edge>
    <edge id=":J5_23" function="internal">
        <lane id=":J5_23_0" index="0" disallow="pedestrian tram rail_urban rail rail_electric rail_fast ship" speed="11.36" length="29.67" shape="-16.80,-1.60 -8.75,-0.45 -3.00,3.00 0.45,8.75 1.60,16.80"/>
    </edge>
    <edge id=":J5_27" function="internal">
        <lane id=":J5_27_0" index="0" disallow="pedestrian tram rail_urban rail rail_electric rail_fast ship" speed="8.00" length="10.13" shape="-12.80,-8.64 -10.20,-10.20 -8.55,-12.95 -8.00,-16.80"/>
    </edge>

    <edge id="-E3" from="J5" to="J4" priority="-1">
        <lane id="-E3_0" index="0" disallow="pedestrian tram rail_urban rail rail_electric rail_fast ship" speed="13.89" length="283.20" shape="-16.80,11.20 -300.00,11.20"/>
        <lane id="-E3_1" index="1" disallow="pedestrian tram rail_urban rail rail_electric rail_fast ship" speed="13.89" length="283.20" shape="-16.80,8.00 -300.00,8.00"/>
        <lane id="-E3_2" index="2" disallow="pedestrian tram rail_urban rail rail_electric rail_fast ship" speed="13.89" length="283.20" shape="-16.80,4.80 -300.00,4.80"/>
        <lane id="-E3_3" index="3" disallow="pedestrian tram rail_urban rail rail_electric rail_fast ship" speed="13.89" length="283.20" shape="-16.80,1.60 -300.00,1.60"/>
    </edge>
    <edge id="E2TL" from="J8" to="J5" priority="-1">
        <lane id="E2TL_0" index="0" disallow="pedestrian tram rail_urban rail rail_electric rail_fast ship" speed="13.89" length="283.20" shape="300.00,11.20 16.80,11.20"/>
        <lane id="E2TL_1" index="1" disallow="pedestrian tram rail_urban rail rail_electric rail_fast ship" speed="13.89" length="283.20" shape="300.00,8.00 16.80,8.00"/>
        <lane id="E2TL_2" index="2" disallow="pedestrian tram rail_urban rail rail_electric rail_fast ship" speed="13.89" length="283.20" shape="300.00,4.80 16.80,4.80"/>
        <lane id="E2TL_3" index="3" disallow="pedestrian tram rail_urban rail rail_electric rail_fast ship" speed="13.89" length="283.20" shape="300.00,1.60 16.80,1.60"/>
    </edge>
    <edge id="E4" from="J5" to="J6" priority="-1">
        <lane id="E4_0" index="0" disallow="pedestrian tram rail_urban rail rail_electric rail_fast ship" speed="13.89" length="283.20" shape="11.20,16.80 11.20,300.00"/>
        <lane id="E4_1" index="1" disallow="pedestrian tram rail_urban rail rail_electric rail_fast ship" speed="13.89" length="283.20" shape="8.00,16.80 8.00,300.00"/>
        <lane id="E4_2" index="2" disallow="pedestrian tram rail_urban rail rail_electric rail_fast ship" speed="13.89" length="283.20" shape="4.80,16.80 4.80,300.00"/>
        <lane id="E4_3" index="3" disallow="pedestrian tram rail_urban rail rail_electric rail_fast ship" speed="13.89" length="283.20" shape="1.60,16.80 1.60,300.00"/>
    </edge>
    <edge id="E5" from="J5" to="J7" priority="-1">
        <lane id="E5_0" index="0" disallow="pedestrian tram rail_urban rail rail_electric rail_fast ship" speed="13.89" length="283.20" shape="-11.20,-16.80 -11.20,-300.00"/>
        <lane id="E5_1" index="1" disallow="pedestrian tram rail_urban rail rail_electric rail_fast ship" speed="13.89" length="283.20" shape="-8.00,-16.80 -8.00,-300.00"/>
        <lane id="E5_2" index="2" disallow="pedestrian tram rail_urban rail rail_electric rail_fast ship" speed="13.89" length="283.20" shape="-4.80,-16.80 -4.80,-300.00"/>
        <lane id="E5_3" index="3" disallow="pedestrian tram rail_urban rail rail_electric rail_fast ship" speed="13.89" length="283.20" shape="-1.60,-16.80 -1.60,-300.00"/>
    </edge>
    <edge id="E6" from="J5" to="J8" priority="-1">
        <lane id="E6_0" index="0" disallow="pedestrian tram rail_urban rail rail_electric rail_fast ship" speed="13.89" length="283.20" shape="16.80,-11.20 300.00,-11.20"/>
        <lane id="E6_1" index="1" disallow="pedestrian tram rail_urban rail rail_electric rail_fast ship" speed="13.89" length="283.20" shape="16.80,-8.00 300.00,-8.00"/>
        <lane id="E6_2" index="2" disallow="pedestrian tram rail_urban rail rail_electric rail_fast ship" speed="13.89" length="283.20" shape="16.80,-4.80 300.00,-4.80"/>
        <lane id="E6_3" index="3" disallow="pedestrian tram rail_urban rail rail_electric rail_fast ship" speed="13.89" length="283.20" shape="16.80,-1.60 300.00,-1.60"/>
    </edge>
    <edge id="N2TL" from="J6" to="J5" priority="-1">
        <lane id="N2TL_0" index="0" disallow="pedestrian tram rail_urban rail rail_electric rail_fast ship" speed="13.89" length="283.20" shape="-11.20,300.00 -11.20,16.80"/>
        <lane id="N2TL_1" index="1" disallow="pedestrian tram rail_urban rail rail_electric rail_fast ship" speed="13.89" length="283.20" shape="-8.00,300.00 -8.00,16.80"/>
        <lane id="N2TL_2" index="2" disallow="pedestrian tram rail_urban rail rail_electric rail_fast ship" speed="13.89" length="283.20" shape="-4.80,300.00 -4.80,16.80"/>
        <lane id="N2TL_3" index="3" disallow="pedestrian tram rail_urban rail rail_electric rail_fast ship" speed="13.89" length="283.20" shape="-1.60,300.00 -1.60,16.80"/>
    </edge>
    <edge id="S2TL" from="J7" to="J5" priority="-1">
        <lane id="S2TL_0" index="0" disallow="pedestrian tram rail_urban rail rail_electric rail_fast ship" speed="13.89" length="283.20" shape="11.20,-300.00 11.20,-16.80"/>
        <lane id="S2TL_1" index="1" disallow="pedestrian tram rail_urban rail rail_electric rail_fast ship" speed="13.89" length="283.20" shape="8.00,-300.00 8.00,-16.80"/>
        <lane id="S2TL_2" index="2" disallow="pedestrian tram rail_urban rail rail_electric rail_fast ship" speed="13.89" length="283.20" shape="4.80,-300.00 4.80,-16.80"/>
        <lane id="S2TL_3" index="3" disallow="pedestrian tram rail_urban rail rail_electric rail_fast ship" speed="13.89" length="283.20" shape="1.60,-300.00 1.60,-16.80"/>
    </edge>
    <edge id="W2TL" from="J4" to="J5" priority="-1">
        <lane id="W2TL_0" index="0" disallow="pedestrian tram rail_urban rail rail_electric rail_fast ship" speed="13.89" length="283.20" shape="-300.00,-11.20 -16.80,-11.20"/>
        <lane id="W2TL_1" index="1" disallow="pedestrian tram rail_urban rail rail_electric rail_fast ship" speed="13.89" length="283.20" shape="-300.00,-8.00 -16.80,-8.00"/>
        <lane id="W2TL_2" index="2" disallow="pedestrian tram rail_urban rail rail_electric rail_fast ship" speed="13.89" length="283.20" shape="-300.00,-4.80 -16.80,-4.80"/>
        <lane id="W2TL_3" index="3" disallow="pedestrian tram rail_urban rail rail_electric rail_fast ship" speed="13.89" length="283.20" shape="-300.00,-1.60 -16.80,-1.60"/>
    </edge>

    <tlLogic id="TL" type="static" programID="6" offset="0">
        <phase duration="33" state="GGgGGrrrrrrrGGgGGrrrrrrr"/>
        <phase duration="3"  state="yyyyyrrrrrrryyyyyrrrrrrr"/>
        <phase duration="6"  state="rrrrrGrrrrrrrrrrrGrrrrrr"/>
        <phase duration="3"  state="rrrrryrrrrrrrrrrryrrrrrr"/>
        <phase duration="33" state="rrrrrrGGgGGrrrrrrrGGgGGr"/>
        <phase duration="3"  state="rrrrrryyyyyrrrrrrryyyyyr"/>
        <phase duration="6"  state="rrrrrrrrrrrGrrrrrrrrrrrG"/>
        <phase duration="3"  state="rrrrrrrrrrryrrrrrrrrrrry"/>
    </tlLogic>

    <junction id="J4" type="dead_end" x="-300.00" y="0.00" incLanes="-E3_0 -E3_1 -E3_2 -E3_3" intLanes="" shape="-300.00,0.00 -300.00,12.80 -300.00,0.00"/>
    <junction id="J5" type="traffic_light" x="0.00" y="0.00" incLanes="N2TL_0 N2TL_1 N2TL_2 N2TL_3 E2TL_0 E2TL_1 E2TL_2 E2TL_3 S2TL_0 S2TL_1 S2TL_2 S2TL_3 W2TL_0 W2TL_1 W2TL_2 W2TL_3" intLanes=":J5_0_0 :J5_1_0 :J5_24_0 :J5_3_0 :J5_3_1 :J5_5_0 :J5_6_0 :J5_7_0 :J5_25_0 :J5_9_0 :J5_9_1 :J5_11_0 :J5_12_0 :J5_13_0 :J5_26_0 :J5_15_0 :J5_15_1 :J5_17_0 :J5_18_0 :J5_19_0 :J5_27_0 :J5_21_0 :J5_21_1 :J5_23_0" shape="-12.80,16.80 12.80,16.80 13.24,14.58 13.80,13.80 14.58,13.24 15.58,12.91 16.80,12.80 16.80,-12.80 14.58,-13.24 13.80,-13.80 13.24,-14.58 12.91,-15.58 12.80,-16.80 -12.80,-16.80 -13.24,-14.58 -13.80,-13.80 -14.58,-13.24 -15.58,-12.91 -16.80,-12.80 -16.80,12.80 -14.58,13.24 -13.80,13.80 -13.24,14.58 -12.91,15.58">
        <request index="0"  response="000000000000000000000000" foes="000000000000011010000000" cont="0"/>
        <request index="1"  response="000100000000000000000000" foes="111111100000011010000100" cont="0"/>
        <request index="2"  response="000000000000000000000010" foes="000000000000011010000010" cont="1"/>
        <request index="3"  response="000100000000000000000000" foes="111111100000011010000000" cont="0"/>
        <request index="4"  response="000100000000000000000000" foes="111111100000011010000000" cont="0"/>
        <request index="5"  response="000000011010000000000000" foes="100000011010111010000000" cont="0"/>
        <request index="6"  response="000000011010000000000000" foes="000000011010000000000000" cont="0"/>
        <request index="7"  response="000000011010000000111111" foes="100000011010000100111111" cont="0"/>
        <request index="8"  response="000000011010000010000000" foes="000000011010000010000000" cont="1"/>
        <request index="9"  response="000000011010000000111111" foes="100000011010000000111111" cont="0"/>
        <request index="10" response="000000011010000000111111" foes="100000011010000000111111" cont="0"/>
        <request index="11" response="011010111010000000100000" foes="011010111010000000100000" cont="0"/>
        <request index="12" response="000000000000000000000000" foes="011010000000000000000000" cont="0"/>
        <request index="13" response="000000000000000100000000" foes="011010000100111111100000" cont="0"/>
        <request index="14" response="000000000010000000000000" foes="011010000010000000000000" cont="1"/>
        <request index="15" response="000000000000000100000000" foes="011010000000111111100000" cont="0"/>
        <request index="16" response="000000000000000100000000" foes="011010000000111111100000" cont="0"/>
        <request index="17" response="000000000000000000011010" foes="111010000000100000011010" cont="0"/>
        <request index="18" response="000000000000000000011010" foes="000000000000000000011010" cont="0"/>
        <request index="19" response="000000111111000000011010" foes="000100111111100000011010" cont="0"/>
        <request index="20" response="000010000000000000011010" foes="000010000000000000011010" cont="1"/>
        <request index="21" response="000000111111000000011010" foes="000000111111100000011010" cont="0"/>
        <request index="22" response="000000111111000000011010" foes="000000111111100000011010" cont="0"/>
        <request index="23" response="000000100000011010111010" foes="000000100000011010111010" cont="0"/>
    </junction>
    <junction id="J6" type="dead_end" x="0.00" y="300.00" incLanes="E4_0 E4_1 E4_2 E4_3" intLanes="" shape="0.00,300.00 12.80,300.00 0.00,300.00"/>
    <junction id="J7" type="dead_end" x="0.00" y="-300.00" incLanes="E5_0 E5_1 E5_2 E5_3" intLanes="" shape="0.00,-300.00 -12.80,-300.00 0.00,-300.00"/>
    <junction id="J8" type="dead_end" x="300.00" y="0.00" incLanes="E6_0 E6_1 E6_2 E6_3" intLanes="" shape="300.00,0.00 300.00,-12.80 300.00,0.00"/>

    <junction id=":J5_24_0" type="internal" x="-8.64" y="12.80" incLanes=":J5_2_0 N2TL_0" intLanes=":J5_1_0 :J5_7_0 :J5_9_0 :J5_9_1 :J5_17_0"/>
    <junction id=":J5_25_0" type="internal" x="12.80" y="8.64" incLanes=":J5_8_0 E2TL_0" intLanes=":J5_7_0 :J5_13_0 :J5_15_0 :J5_15_1 :J5_23_0"/>
    <junction id=":J5_26_0" type="internal" x="8.64" y="-12.80" incLanes=":J5_14_0 S2TL_0" intLanes=":J5_5_0 :J5_13_0 :J5_19_0 :J5_21_0 :J5_21_1"/>
    <junction id=":J5_27_0" type="internal" x="-12.80" y="-8.64" incLanes=":J5_20_0 W2TL_0" intLanes=":J5_1_0 :J5_3_0 :J5_3_1 :J5_11_0 :J5_19_0"/>

    <connection from="E2TL" to="E4" fromLane="0" toLane="0" via=":J5_6_0" tl="TL" linkIndex="6" dir="r" state="o"/>
    <connection from="E2TL" to="-E3" fromLane="0" toLane="0" via=":J5_7_0" tl="TL" linkIndex="7" dir="s" state="o"/>
    <connection from="E2TL" to="E4" fromLane="1" toLane="1" via=":J5_8_0" tl="TL" linkIndex="8" dir="r" state="o"/>
    <connection from="E2TL" to="-E3" fromLane="1" toLane="1" via=":J5_9_0" tl="TL" linkIndex="9" dir="s" state="o"/>
    <connection from="E2TL" to="-E3" fromLane="2" toLane="2" via=":J5_9_1" tl="TL" linkIndex="10" dir="s" state="o"/>
    <connection from="E2TL" to="E5" fromLane="3" toLane="3" via=":J5_11_0" tl="TL" linkIndex="11" dir="l" state="o"/>
    <connection from="N2TL" to="-E3" fromLane="0" toLane="0" via=":J5_0_0" tl="TL" linkIndex="0" dir="r" state="O"/>
    <connection from="N2TL" to="E5" fromLane="0" toLane="0" via=":J5_1_0" tl="TL" linkIndex="1" dir="s" state="O"/>
    <connection from="N2TL" to="-E3" fromLane="1" toLane="1" via=":J5_2_0" tl="TL" linkIndex="2" dir="r" state="o"/>
    <connection from="N2TL" to="E5" fromLane="1" toLane="1" via=":J5_3_0" tl="TL" linkIndex="3" dir="s" state="O"/>
    <connection from="N2TL" to="E5" fromLane="2" toLane="2" via=":J5_3_1" tl="TL" linkIndex="4" dir="s" state="O"/>
    <connection from="N2TL" to="E6" fromLane="3" toLane="3" via=":J5_5_0" tl="TL" linkIndex="5" dir="l" state="o"/>
    <connection from="S2TL" to="E6" fromLane="0" toLane="0" via=":J5_12_0" tl="TL" linkIndex="12" dir="r" state="O"/>
    <connection from="S2TL" to="E4" fromLane="0" toLane="0" via=":J5_13_0" tl="TL" linkIndex="13" dir="s" state="O"/>
    <connection from="S2TL" to="E6" fromLane="1" toLane="1" via=":J5_14_0" tl="TL" linkIndex="14" dir="r" state="o"/>
    <connection from="S2TL" to="E4" fromLane="1" toLane="1" via=":J5_15_0" tl="TL" linkIndex="15" dir="s" state="O"/>
    <connection from="S2TL" to="E4" fromLane="2" toLane="2" via=":J5_15_1" tl="TL" linkIndex="16" dir="s" state="O"/>
    <connection from="S2TL" to="-E3" fromLane="3" toLane="3" via=":J5_17_0" tl="TL" linkIndex="17" dir="l" state="o"/>
    <connection from="W2TL" to="E5" fromLane="0" toLane="0" via=":J5_18_0" tl="TL" linkIndex="18" dir="r" state="o"/>
    <connection from="W2TL" to="E6" fromLane="0" toLane="0" via=":J5_19_0" tl="TL" linkIndex="19" dir="s" state="o"/>
    <connection from="W2TL" to="E5" fromLane="1" toLane="1" via=":J5_20_0" tl="TL" linkIndex="20" dir="r" state="o"/>
    <connection from="W2TL" to="E6" fromLane="1" toLane="1" via=":J5_21_0" tl="TL" linkIndex="21" dir="s" state="o"/>
    <connection from="W2TL" to="E6" fromLane="2" toLane="2" via=":J5_21_1" tl="TL" linkIndex="22" dir="s" state="o"/>
    <connection from="W2TL" to="E4" fromLane="3" toLane="3" via=":J5_23_0" tl="TL" linkIndex="23" dir="l" state="o"/>

    <connection from=":J5_0" to="-E3" fromLane="0" toLane="0" dir="r" state="M"/>
    <connection from=":J5_1" to="E5" fromLane="0" toLane="0" dir="s" state="M"/>
    <connection from=":J5_2" to="-E3" fromLane="0" toLane="1" via=":J5_24_0" dir="r" state="m"/>
    <connection from=":J5_24" to="-E3" fromLane="0" toLane="1" dir="r" state="M"/>
    <connection from=":J5_3" to="E5" fromLane="0" toLane="1" dir="s" state="M"/>
    <connection from=":J5_3" to="E5" fromLane="1" toLane="2" dir="s" state="M"/>
    <connection from=":J5_5" to="E6" fromLane="0" toLane="3" dir="l" state="M"/>
    <connection from=":J5_6" to="E4" fromLane="0" toLane="0" dir="r" state="M"/>
    <connection from=":J5_7" to="-E3" fromLane="0" toLane="0" dir="s" state="M"/>
    <connection from=":J5_8" to="E4" fromLane="0" toLane="1" via=":J5_25_0" dir="r" state="m"/>
    <connection from=":J5_25" to="E4" fromLane="0" toLane="1" dir="r" state="M"/>
    <connection from=":J5_9" to="-E3" fromLane="0" toLane="1" dir="s" state="M"/>
    <connection from=":J5_9" to="-E3" fromLane="1" toLane="2" dir="s" state="M"/>
    <connection from=":J5_11" to="E5" fromLane="0" toLane="3" dir="l" state="M"/>
    <connection from=":J5_12" to="E6" fromLane="0" toLane="0" dir="r" state="M"/>
    <connection from=":J5_13" to="E4" fromLane="0" toLane="0" dir="s" state="M"/>
    <connection from=":J5_14" to="E6" fromLane="0" toLane="1" via=":J5_26_0" dir="r" state="m"/>
    <connection from=":J5_26" to="E6" fromLane="0" toLane="1" dir="r" state="M"/>
    <connection from=":J5_15" to="E4" fromLane="0" toLane="1" dir="s" state="M"/>
    <connection from=":J5_15" to="E4" fromLane="1" toLane="2" dir="s" state="M"/>
    <connection from=":J5_17" to="-E3" fromLane="0" toLane="3" dir="l" state="M"/>
    <connection from=":J5_18" to="E5" fromLane="0" toLane="0" dir="r" state="M"/>
    <connection from=":J5_19" to="E6" fromLane="0" toLane="0" dir="s" state="M"/>
    <connection from=":J5_20" to="E5" fromLane="0" toLane="1" via=":J5_27_0" dir="r" state="m"/>
    <connection from=":J5_27" to="E5" fromLane="0" toLane="1" dir="r" state="M"/>
    <connection from=":J5_21" to="E6" fromLane="0" toLane="1" dir="s" state="M"/>
    <connection from=":J5_21" to="E6" fromLane="1" toLane="2" dir="s" state="M"/>
    <connection from=":J5_23" to="E4" fromLane="0" toLane="3" dir="l" state="M"/>

</net>
