<?xml version="1.0" encoding="UTF-8"?>

<!-- generated on 2024-06-24 14:11:43 by Eclipse SUMO netedit Version 1.19.0
<configuration xmlns:xsi="http://www.w3.org/2001/XMLSchema-instance" xsi:noNamespaceSchemaLocation="http://sumo.dlr.de/xsd/neteditConfiguration.xsd">

    <input>
        <sumocfg-file value="/home/abdelazizwf/Workspace/github.com/abdelazizwf/rl-traffic-controller/simulation/v1.sumocfg"/>
        <additional-files value="/home/abdelazizwf/Workspace/github.com/abdelazizwf/rl-traffic-controller/simulation/v1.add.xml"/>
        <route-files value="/home/abdelazizwf/Workspace/github.com/abdelazizwf/rl-traffic-controller/simulation/v1.rou.xml"/>
        <sumo-net-file value="/home/abdelazizwf/Workspace/github.com/abdelazizwf/rl-traffic-controller/simulation/v1.net.xml"/>
    </input>

    <output>
        <output-file value="/home/abdelazizwf/Workspace/github.com/abdelazizwf/rl-traffic-controller/simulation/v1.net.xml"/>
    </output>

    <processing>
        <geometry.min-radius.fix.railways value="false"/>
        <geometry.max-grade.fix value="false"/>
        <offset.disable-normalization value="true"/>
        <lefthand value="0"/>
    </processing>

    <junctions>
        <no-turnarounds value="true"/>
        <junctions.corner-detail value="5"/>
        <junctions.limit-turn-speed value="5.50"/>
        <rectangular-lane-cut value="0"/>
    </junctions>

    <pedestrian>
        <walkingareas value="0"/>
    </pedestrian>

</configuration>
-->

<net version="1.16" junctionCornerDetail="5" limitTurnSpeed="5.50" xmlns:xsi="http://www.w3.org/2001/XMLSchema-instance" xsi:noNamespaceSchemaLocation="http://sumo.dlr.de/xsd/net_file.xsd">

    <location netOffset="0.00,0.00" convBoundary="-225.00,-225.00,225.00,225.00" origBoundary="-10000000000.00,-10000000000.00,10000000000.00,10000000000.00" projParameter="!"/>

    <edge id=":J5_0" function="internal">
        <lane id=":J5_0_0" index="0" disallow="pedestrian tram rail_urban rail rail_electric rail_fast ship" speed="6.51" length="9.03" shape="-5.31,19.48 -6.42,17.27 -7.97,15.94 -9.96,15.50 -12.40,15.94"/>
    </edge>
    <edge id=":J5_1" function="internal">
        <lane id=":J5_1_0" index="0" disallow="pedestrian tram rail_urban rail rail_electric rail_fast ship" speed="13.89" length="33.60" shape="-5.31,19.48 -15.94,-12.40"/>
    </edge>
    <edge id=":J5_2" function="internal">
        <lane id=":J5_2_0" index="0" disallow="pedestrian tram rail_urban rail rail_electric rail_fast ship" speed="8.00" length="4.07" shape="-2.28,18.47 -4.02,14.99 -4.15,14.87"/>
    </edge>
    <edge id=":J5_3" function="internal">
        <lane id=":J5_3_0" index="0" disallow="pedestrian tram rail_urban rail rail_electric rail_fast ship" speed="13.89" length="33.60" shape="-2.28,18.47 -12.90,-13.41"/>
        <lane id=":J5_3_1" index="1" disallow="pedestrian tram rail_urban rail rail_electric rail_fast ship" speed="13.89" length="33.60" shape="0.76,17.46 -9.87,-14.42"/>
    </edge>
    <edge id=":J5_5" function="internal">
        <lane id=":J5_5_0" index="0" disallow="pedestrian tram rail_urban rail rail_electric rail_fast ship" speed="11.36" length="29.67" shape="3.79,16.44 2.34,8.44 3.79,1.90 8.16,-3.19 15.43,-6.83"/>
    </edge>
    <edge id=":J5_24" function="internal">
        <lane id=":J5_24_0" index="0" disallow="pedestrian tram rail_urban rail rail_electric rail_fast ship" speed="8.00" length="10.13" shape="-4.15,14.87 -6.45,12.90 -9.58,12.21 -13.41,12.90"/>
    </edge>
    <edge id=":J5_6" function="internal">
        <lane id=":J5_6_0" index="0" disallow="pedestrian tram rail_urban rail rail_electric rail_fast ship" speed="6.51" length="9.03" shape="19.48,5.31 17.27,6.42 15.94,7.97 15.50,9.96 15.94,12.40"/>
    </edge>
    <edge id=":J5_7" function="internal">
        <lane id=":J5_7_0" index="0" disallow="pedestrian tram rail_urban rail rail_electric rail_fast ship" speed="13.89" length="33.60" shape="19.48,5.31 -12.40,15.94"/>
    </edge>
    <edge id=":J5_8" function="internal">
        <lane id=":J5_8_0" index="0" disallow="pedestrian tram rail_urban rail rail_electric rail_fast ship" speed="8.00" length="4.07" shape="18.47,2.28 14.99,4.02 14.87,4.15"/>
    </edge>
    <edge id=":J5_9" function="internal">
        <lane id=":J5_9_0" index="0" disallow="pedestrian tram rail_urban rail rail_electric rail_fast ship" speed="13.89" length="33.60" shape="18.47,2.28 -13.41,12.90"/>
        <lane id=":J5_9_1" index="1" disallow="pedestrian tram rail_urban rail rail_electric rail_fast ship" speed="13.89" length="33.60" shape="17.46,-0.76 -14.42,9.87"/>
    </edge>
    <edge id=":J5_11" function="internal">
        <lane id=":J5_11_0" index="0" disallow="pedestrian tram rail_urban rail rail_electric rail_fast ship" speed="11.36" length="29.67" shape="16.44,-3.79 8.44,-2.34 1.90,-3.79 -3.19,-8.16 -6.83,-15.43"/>
    </edge>
    <edge id=":J5_25" function="internal">
        <lane id=":J5_25_0" index="0" disallow="pedestrian tram rail_urban rail rail_electric rail_fast ship" speed="8.00" length="10.13" shape="14.87,4.15 12.90,6.45 12.21,9.58 12.90,13.41"/>
    </edge>
    <edge id=":J5_12" function="internal">
        <lane id=":J5_12_0" index="0" disallow="pedestrian tram rail_urban rail rail_electric rail_fast ship" speed="6.51" length="9.03" shape="5.31,-19.48 6.42,-17.27 7.97,-15.94 9.96,-15.50 12.40,-15.94"/>
    </edge>
    <edge id=":J5_13" function="internal">
        <lane id=":J5_13_0" index="0" disallow="pedestrian tram rail_urban rail rail_electric rail_fast ship" speed="13.89" length="33.60" shape="5.31,-19.48 15.94,12.40"/>
    </edge>
    <edge id=":J5_14" function="internal">
        <lane id=":J5_14_0" index="0" disallow="pedestrian tram rail_urban rail rail_electric rail_fast ship" speed="8.00" length="4.07" shape="2.28,-18.47 4.02,-14.99 4.15,-14.87"/>
    </edge>
    <edge id=":J5_15" function="internal">
        <lane id=":J5_15_0" index="0" disallow="pedestrian tram rail_urban rail rail_electric rail_fast ship" speed="13.89" length="33.60" shape="2.28,-18.47 12.90,13.41"/>
        <lane id=":J5_15_1" index="1" disallow="pedestrian tram rail_urban rail rail_electric rail_fast ship" speed="13.89" length="33.60" shape="-0.76,-17.46 9.87,14.42"/>
    </edge>
    <edge id=":J5_17" function="internal">
        <lane id=":J5_17_0" index="0" disallow="pedestrian tram rail_urban rail rail_electric rail_fast ship" speed="11.36" length="29.67" shape="-3.79,-16.44 -2.34,-8.44 -3.79,-1.90 -8.16,3.19 -15.43,6.83"/>
    </edge>
    <edge id=":J5_26" function="internal">
        <lane id=":J5_26_0" index="0" disallow="pedestrian tram rail_urban rail rail_electric rail_fast ship" speed="8.00" length="10.13" shape="4.15,-14.87 6.45,-12.90 9.58,-12.21 13.41,-12.90"/>
    </edge>
    <edge id=":J5_18" function="internal">
        <lane id=":J5_18_0" index="0" disallow="pedestrian tram rail_urban rail rail_electric rail_fast ship" speed="6.51" length="9.03" shape="-19.48,-5.31 -17.27,-6.42 -15.94,-7.97 -15.50,-9.96 -15.94,-12.40"/>
    </edge>
    <edge id=":J5_19" function="internal">
        <lane id=":J5_19_0" index="0" disallow="pedestrian tram rail_urban rail rail_electric rail_fast ship" speed="13.89" length="33.60" shape="-19.48,-5.31 12.40,-15.94"/>
    </edge>
    <edge id=":J5_20" function="internal">
        <lane id=":J5_20_0" index="0" disallow="pedestrian tram rail_urban rail rail_electric rail_fast ship" speed="8.00" length="4.07" shape="-18.47,-2.28 -14.99,-4.02 -14.87,-4.15"/>
    </edge>
    <edge id=":J5_21" function="internal">
        <lane id=":J5_21_0" index="0" disallow="pedestrian tram rail_urban rail rail_electric rail_fast ship" speed="13.89" length="33.60" shape="-18.47,-2.28 13.41,-12.90"/>
        <lane id=":J5_21_1" index="1" disallow="pedestrian tram rail_urban rail rail_electric rail_fast ship" speed="13.89" length="33.60" shape="-17.46,0.76 14.42,-9.87"/>
    </edge>
    <edge id=":J5_23" function="internal">
        <lane id=":J5_23_0" index="0" disallow="pedestrian tram rail_urban rail rail_electric rail_fast ship" speed="11.36" length="29.67" shape="-16.44,3.79 -8.44,2.34 -1.90,3.79 3.19,8.16 6.83,15.43"/>
    </edge>
    <edge id=":J5_27" function="internal">
        <lane id=":J5_27_0" index="0" disallow="pedestrian tram rail_urban rail rail_electric rail_fast ship" speed="8.00" length="10.13" shape="-14.87,-4.15 -12.90,-6.45 -12.21,-9.58 -12.90,-13.41"/>
    </edge>

    <edge id="-E3" from="J5" to="J4" priority="-1">
        <lane id="-E3_0" index="0" disallow="pedestrian tram rail_urban rail rail_electric rail_fast ship" speed="13.89" length="220.37" shape="-12.40,15.94 -221.46,85.63"/>
        <lane id="-E3_1" index="1" disallow="pedestrian tram rail_urban rail rail_electric rail_fast ship" speed="13.89" length="220.37" shape="-13.41,12.90 -222.47,82.59"/>
        <lane id="-E3_2" index="2" disallow="pedestrian tram rail_urban rail rail_electric rail_fast ship" speed="13.89" length="220.37" shape="-14.42,9.87 -223.48,79.55"/>
        <lane id="-E3_3" index="3" disallow="pedestrian tram rail_urban rail rail_electric rail_fast ship" speed="13.89" length="220.37" shape="-15.43,6.83 -224.49,76.52"/>
    </edge>
    <edge id="E2TL" from="J8" to="J5" priority="-1">
        <lane id="E2TL_0" index="0" disallow="pedestrian tram rail_urban rail rail_electric rail_fast ship" speed="13.89" length="220.37" shape="228.54,-64.37 19.48,5.31"/>
        <lane id="E2TL_1" index="1" disallow="pedestrian tram rail_urban rail rail_electric rail_fast ship" speed="13.89" length="220.37" shape="227.53,-67.41 18.47,2.28"/>
        <lane id="E2TL_2" index="2" disallow="pedestrian tram rail_urban rail rail_electric rail_fast ship" speed="13.89" length="220.37" shape="226.52,-70.45 17.46,-0.76"/>
        <lane id="E2TL_3" index="3" disallow="pedestrian tram rail_urban rail rail_electric rail_fast ship" speed="13.89" length="220.37" shape="225.51,-73.48 16.44,-3.79"/>
    </edge>
    <edge id="E4" from="J5" to="J6" priority="-1">
        <lane id="E4_0" index="0" disallow="pedestrian tram rail_urban rail rail_electric rail_fast ship" speed="13.89" length="220.37" shape="15.94,12.40 85.63,221.46"/>
        <lane id="E4_1" index="1" disallow="pedestrian tram rail_urban rail rail_electric rail_fast ship" speed="13.89" length="220.37" shape="12.90,13.41 82.59,222.47"/>
        <lane id="E4_2" index="2" disallow="pedestrian tram rail_urban rail rail_electric rail_fast ship" speed="13.89" length="220.37" shape="9.87,14.42 79.55,223.48"/>
        <lane id="E4_3" index="3" disallow="pedestrian tram rail_urban rail rail_electric rail_fast ship" speed="13.89" length="220.37" shape="6.83,15.43 76.52,224.49"/>
    </edge>
    <edge id="E5" from="J5" to="J7" priority="-1">
        <lane id="E5_0" index="0" disallow="pedestrian tram rail_urban rail rail_electric rail_fast ship" speed="13.89" length="220.37" shape="-15.94,-12.40 -85.63,-221.46"/>
        <lane id="E5_1" index="1" disallow="pedestrian tram rail_urban rail rail_electric rail_fast ship" speed="13.89" length="220.37" shape="-12.90,-13.41 -82.59,-222.47"/>
        <lane id="E5_2" index="2" disallow="pedestrian tram rail_urban rail rail_electric rail_fast ship" speed="13.89" length="220.37" shape="-9.87,-14.42 -79.55,-223.48"/>
        <lane id="E5_3" index="3" disallow="pedestrian tram rail_urban rail rail_electric rail_fast ship" speed="13.89" length="220.37" shape="-6.83,-15.43 -76.52,-224.49"/>
    </edge>
    <edge id="E6" from="J5" to="J8" priority="-1">
        <lane id="E6_0" index="0" disallow="pedestrian tram rail_urban rail rail_electric rail_fast ship" speed="13.89" length="220.37" shape="12.40,-15.94 221.46,-85.63"/>
        <lane id="E6_1" index="1" disallow="pedestrian tram rail_urban rail rail_electric rail_fast ship" speed="13.89" length="220.37" shape="13.41,-12.90 222.47,-82.59"/>
        <lane id="E6_2" index="2" disallow="pedestrian tram rail_urban rail rail_electric rail_fast ship" speed="13.89" length="220.37" shape="14.42,-9.87 223.48,-79.55"/>
        <lane id="E6_3" index="3" disallow="pedestrian tram rail_urban rail rail_electric rail_fast ship" speed="13.89" length="220.37" shape="15.43,-6.83 224.49,-76.52"/>
    </edge>
    <edge id="N2TL" from="J6" to="J5" priority="-1">
        <lane id="N2TL_0" index="0" disallow="pedestrian tram rail_urban rail rail_electric rail_fast ship" speed="13.89" length="220.37" shape="64.37,228.54 -5.31,19.48"/>
        <lane id="N2TL_1" index="1" disallow="pedestrian tram rail_urban rail rail_electric rail_fast ship" speed="13.89" length="220.37" shape="67.41,227.53 -2.28,18.47"/>
        <lane id="N2TL_2" index="2" disallow="pedestrian tram rail_urban rail rail_electric rail_fast ship" speed="13.89" length="220.37" shape="70.45,226.52 0.76,17.46"/>
        <lane id="N2TL_3" index="3" disallow="pedestrian tram rail_urban rail rail_electric rail_fast ship" speed="13.89" length="220.37" shape="73.48,225.51 3.79,16.44"/>
    </edge>
    <edge id="S2TL" from="J7" to="J5" priority="-1">
        <lane id="S2TL_0" index="0" disallow="pedestrian tram rail_urban rail rail_electric rail_fast ship" speed="13.89" length="220.37" shape="-64.37,-228.54 5.31,-19.48"/>
        <lane id="S2TL_1" index="1" disallow="pedestrian tram rail_urban rail rail_electric rail_fast ship" speed="13.89" length="220.37" shape="-67.41,-227.53 2.28,-18.47"/>
        <lane id="S2TL_2" index="2" disallow="pedestrian tram rail_urban rail rail_electric rail_fast ship" speed="13.89" length="220.37" shape="-70.45,-226.52 -0.76,-17.46"/>
        <lane id="S2TL_3" index="3" disallow="pedestrian tram rail_urban rail rail_electric rail_fast ship" speed="13.89" length="220.37" shape="-73.48,-225.51 -3.79,-16.44"/>
    </edge>
    <edge id="W2TL" from="J4" to="J5" priority="-1">
        <lane id="W2TL_0" index="0" disallow="pedestrian tram rail_urban rail rail_electric rail_fast ship" speed="13.89" length="220.37" shape="-228.54,64.37 -19.48,-5.31"/>
        <lane id="W2TL_1" index="1" disallow="pedestrian tram rail_urban rail rail_electric rail_fast ship" speed="13.89" length="220.37" shape="-227.53,67.41 -18.47,-2.28"/>
        <lane id="W2TL_2" index="2" disallow="pedestrian tram rail_urban rail rail_electric rail_fast ship" speed="13.89" length="220.37" shape="-226.52,70.45 -17.46,0.76"/>
        <lane id="W2TL_3" index="3" disallow="pedestrian tram rail_urban rail rail_electric rail_fast ship" speed="13.89" length="220.37" shape="-225.51,73.48 -16.44,3.79"/>
    </edge>

    <tlLogic id="TL" type="static" programID="6" offset="0">
        <phase duration="33" state="GGgGGrrrrrrrGGgGGrrrrrrr"/>
        <phase duration="3"  state="yyyyyrrrrrrryyyyyrrrrrrr"/>
        <phase duration="6"  state="rrrrrGrrrrrrrrrrrGrrrrrr"/>
        <phase duration="3"  state="rrrrryrrrrrrrrrrryrrrrrr"/>
        <phase duration="33" state="rrrrrrGGgGGrrrrrrrGGgGGr"/>
        <phase duration="3"  state="rrrrrryyyyyrrrrrrryyyyyr"/>
        <phase duration="6"  state="rrrrrrrrrrrGrrrrrrrrrrrG"/>
        <phase duration="3"  state="rrrrrrrrrrryrrrrrrrrrrry"/>
    </tlLogic>

    <junction id="J4" type="dead_end" x="-225.00" y="75.00" incLanes="-E3_0 -E3_1 -E3_2 -E3_3" intLanes="" shape="-225.00,75.00 -220.95,87.14 -225.00,75.00"/>
    <junction id="J5" type="traffic_light" x="0.00" y="0.00" incLanes="N2TL_0 N2TL_1 N2TL_2 N2TL_3 E2TL_0 E2TL_1 E2TL_2 E2TL_3 S2TL_0 S2TL_1 S2TL_2 S2TL_3 W2TL_0 W2TL_1 W2TL_2 W2TL_3" intLanes=":J5_0_0 :J5_1_0 :J5_24_0 :J5_3_0 :J5_3_1 :J5_5_0 :J5_6_0 :J5_7_0 :J5_25_0 :J5_9_0 :J5_9_1 :J5_11_0 :J5_12_0 :J5_13_0 :J5_26_0 :J5_15_0 :J5_15_1 :J5_17_0 :J5_18_0 :J5_19_0 :J5_27_0 :J5_21_0 :J5_21_1 :J5_23_0" shape="-6.83,19.99 17.46,11.89 17.17,9.64 17.46,8.73 18.02,7.95 18.86,7.32 19.99,6.83 11.89,-17.46 9.64,-17.17 8.73,-17.46 7.95,-18.02 7.32,-18.86 6.83,-19.99 -17.46,-11.89 -17.17,-9.64 -17.46,-8.73 -18.02,-7.95 -18.86,-7.32 -19.99,-6.83 -11.89,17.46 -9.64,17.17 -8.73,17.46 -7.95,18.02 -7.32,18.86">
        <request index="0"  response="000000000000000000000000" foes="000000000000011010000000" cont="0"/>
        <request index="1"  response="000100000000000000000000" foes="111111100000011010000100" cont="0"/>
        <request index="2"  response="000000000000000000000010" foes="000000000000011010000010" cont="1"/>
        <request index="3"  response="000100000000000000000000" foes="111111100000011010000000" cont="0"/>
        <request index="4"  response="000100000000000000000000" foes="111111100000011010000000" cont="0"/>
        <request index="5"  response="000000011010000000000000" foes="100000011010111010000000" cont="0"/>
        <request index="6"  response="000000011010000000000000" foes="000000011010000000000000" cont="0"/>
        <request index="7"  response="000000011010000000111111" foes="100000011010000100111111" cont="0"/>
        <request index="8"  response="000000011010000010000000" foes="000000011010000010000000" cont="1"/>
        <request index="9"  response="000000011010000000111111" foes="100000011010000000111111" cont="0"/>
        <request index="10" response="000000011010000000111111" foes="100000011010000000111111" cont="0"/>
        <request index="11" response="011010111010000000100000" foes="011010111010000000100000" cont="0"/>
        <request index="12" response="000000000000000000000000" foes="011010000000000000000000" cont="0"/>
        <request index="13" response="000000000000000100000000" foes="011010000100111111100000" cont="0"/>
        <request index="14" response="000000000010000000000000" foes="011010000010000000000000" cont="1"/>
        <request index="15" response="000000000000000100000000" foes="011010000000111111100000" cont="0"/>
        <request index="16" response="000000000000000100000000" foes="011010000000111111100000" cont="0"/>
        <request index="17" response="000000000000000000011010" foes="111010000000100000011010" cont="0"/>
        <request index="18" response="000000000000000000011010" foes="000000000000000000011010" cont="0"/>
        <request index="19" response="000000111111000000011010" foes="000100111111100000011010" cont="0"/>
        <request index="20" response="000010000000000000011010" foes="000010000000000000011010" cont="1"/>
        <request index="21" response="000000111111000000011010" foes="000000111111100000011010" cont="0"/>
        <request index="22" response="000000111111000000011010" foes="000000111111100000011010" cont="0"/>
        <request index="23" response="000000100000011010111010" foes="000000100000011010111010" cont="0"/>
    </junction>
    <junction id="J6" type="dead_end" x="75.00" y="225.00" incLanes="E4_0 E4_1 E4_2 E4_3" intLanes="" shape="75.00,225.00 87.14,220.95 75.00,225.00"/>
    <junction id="J7" type="dead_end" x="-75.00" y="-225.00" incLanes="E5_0 E5_1 E5_2 E5_3" intLanes="" shape="-75.00,-225.00 -87.14,-220.95 -75.00,-225.00"/>
    <junction id="J8" type="dead_end" x="225.00" y="-75.00" incLanes="E6_0 E6_1 E6_2 E6_3" intLanes="" shape="225.00,-75.00 220.95,-87.14 225.00,-75.00"/>

    <junction id=":J5_24_0" type="internal" x="-4.15" y="14.87" incLanes=":J5_2_0 N2TL_0" intLanes=":J5_1_0 :J5_7_0 :J5_9_0 :J5_9_1 :J5_17_0"/>
    <junction id=":J5_25_0" type="internal" x="14.87" y="4.15" incLanes=":J5_8_0 E2TL_0" intLanes=":J5_7_0 :J5_13_0 :J5_15_0 :J5_15_1 :J5_23_0"/>
    <junction id=":J5_26_0" type="internal" x="4.15" y="-14.87" incLanes=":J5_14_0 S2TL_0" intLanes=":J5_5_0 :J5_13_0 :J5_19_0 :J5_21_0 :J5_21_1"/>
    <junction id=":J5_27_0" type="internal" x="-14.87" y="-4.15" incLanes=":J5_20_0 W2TL_0" intLanes=":J5_1_0 :J5_3_0 :J5_3_1 :J5_11_0 :J5_19_0"/>

    <connection from="E2TL" to="E4" fromLane="0" toLane="0" via=":J5_6_0" tl="TL" linkIndex="6" dir="r" state="o"/>
    <connection from="E2TL" to="-E3" fromLane="0" toLane="0" via=":J5_7_0" tl="TL" linkIndex="7" dir="s" state="o"/>
    <connection from="E2TL" to="E4" fromLane="1" toLane="1" via=":J5_8_0" tl="TL" linkIndex="8" dir="r" state="o"/>
    <connection from="E2TL" to="-E3" fromLane="1" toLane="1" via=":J5_9_0" tl="TL" linkIndex="9" dir="s" state="o"/>
    <connection from="E2TL" to="-E3" fromLane="2" toLane="2" via=":J5_9_1" tl="TL" linkIndex="10" dir="s" state="o"/>
    <connection from="E2TL" to="E5" fromLane="3" toLane="3" via=":J5_11_0" tl="TL" linkIndex="11" dir="l" state="o"/>
    <connection from="N2TL" to="-E3" fromLane="0" toLane="0" via=":J5_0_0" tl="TL" linkIndex="0" dir="r" state="O"/>
    <connection from="N2TL" to="E5" fromLane="0" toLane="0" via=":J5_1_0" tl="TL" linkIndex="1" dir="s" state="O"/>
    <connection from="N2TL" to="-E3" fromLane="1" toLane="1" via=":J5_2_0" tl="TL" linkIndex="2" dir="r" state="o"/>
    <connection from="N2TL" to="E5" fromLane="1" toLane="1" via=":J5_3_0" tl="TL" linkIndex="3" dir="s" state="O"/>
    <connection from="N2TL" to="E5" fromLane="2" toLane="2" via=":J5_3_1" tl="TL" linkIndex="4" dir="s" state="O"/>
    <connection from="N2TL" to="E6" fromLane="3" toLane="3" via=":J5_5_0" tl="TL" linkIndex="5" dir="l" state="o"/>
    <connection from="S2TL" to="E6" fromLane="0" toLane="0" via=":J5_12_0" tl="TL" linkIndex="12" dir="r" state="O"/>
    <connection from="S2TL" to="E4" fromLane="0" toLane="0" via=":J5_13_0" tl="TL" linkIndex="13" dir="s" state="O"/>
    <connection from="S2TL" to="E6" fromLane="1" toLane="1" via=":J5_14_0" tl="TL" linkIndex="14" dir="r" state="o"/>
    <connection from="S2TL" to="E4" fromLane="1" toLane="1" via=":J5_15_0" tl="TL" linkIndex="15" dir="s" state="O"/>
    <connection from="S2TL" to="E4" fromLane="2" toLane="2" via=":J5_15_1" tl="TL" linkIndex="16" dir="s" state="O"/>
    <connection from="S2TL" to="-E3" fromLane="3" toLane="3" via=":J5_17_0" tl="TL" linkIndex="17" dir="l" state="o"/>
    <connection from="W2TL" to="E5" fromLane="0" toLane="0" via=":J5_18_0" tl="TL" linkIndex="18" dir="r" state="o"/>
    <connection from="W2TL" to="E6" fromLane="0" toLane="0" via=":J5_19_0" tl="TL" linkIndex="19" dir="s" state="o"/>
    <connection from="W2TL" to="E5" fromLane="1" toLane="1" via=":J5_20_0" tl="TL" linkIndex="20" dir="r" state="o"/>
    <connection from="W2TL" to="E6" fromLane="1" toLane="1" via=":J5_21_0" tl="TL" linkIndex="21" dir="s" state="o"/>
    <connection from="W2TL" to="E6" fromLane="2" toLane="2" via=":J5_21_1" tl="TL" linkIndex="22" dir="s" state="o"/>
    <connection from="W2TL" to="E4" fromLane="3" toLane="3" via=":J5_23_0" tl="TL" linkIndex="23" dir="l" state="o"/>

    <connection from=":J5_0" to="-E3" fromLane="0" toLane="0" dir="r" state="M"/>
    <connection from=":J5_1" to="E5" fromLane="0" toLane="0" dir="s" state="M"/>
    <connection from=":J5_2" to="-E3" fromLane="0" toLane="1" via=":J5_24_0" dir="r" state="m"/>
    <connection from=":J5_24" to="-E3" fromLane="0" toLane="1" dir="r" state="M"/>
    <connection from=":J5_3" to="E5" fromLane="0" toLane="1" dir="s" state="M"/>
    <connection from=":J5_3" to="E5" fromLane="1" toLane="2" dir="s" state="M"/>
    <connection from=":J5_5" to="E6" fromLane="0" toLane="3" dir="l" state="M"/>
    <connection from=":J5_6" to="E4" fromLane="0" toLane="0" dir="r" state="M"/>
    <connection from=":J5_7" to="-E3" fromLane="0" toLane="0" dir="s" state="M"/>
    <connection from=":J5_8" to="E4" fromLane="0" toLane="1" via=":J5_25_0" dir="r" state="m"/>
    <connection from=":J5_25" to="E4" fromLane="0" toLane="1" dir="r" state="M"/>
    <connection from=":J5_9" to="-E3" fromLane="0" toLane="1" dir="s" state="M"/>
    <connection from=":J5_9" to="-E3" fromLane="1" toLane="2" dir="s" state="M"/>
    <connection from=":J5_11" to="E5" fromLane="0" toLane="3" dir="l" state="M"/>
    <connection from=":J5_12" to="E6" fromLane="0" toLane="0" dir="r" state="M"/>
    <connection from=":J5_13" to="E4" fromLane="0" toLane="0" dir="s" state="M"/>
    <connection from=":J5_14" to="E6" fromLane="0" toLane="1" via=":J5_26_0" dir="r" state="m"/>
    <connection from=":J5_26" to="E6" fromLane="0" toLane="1" dir="r" state="M"/>
    <connection from=":J5_15" to="E4" fromLane="0" toLane="1" dir="s" state="M"/>
    <connection from=":J5_15" to="E4" fromLane="1" toLane="2" dir="s" state="M"/>
    <connection from=":J5_17" to="-E3" fromLane="0" toLane="3" dir="l" state="M"/>
    <connection from=":J5_18" to="E5" fromLane="0" toLane="0" dir="r" state="M"/>
    <connection from=":J5_19" to="E6" fromLane="0" toLane="0" dir="s" state="M"/>
    <connection from=":J5_20" to="E5" fromLane="0" toLane="1" via=":J5_27_0" dir="r" state="m"/>
    <connection from=":J5_27" to="E5" fromLane="0" toLane="1" dir="r" state="M"/>
    <connection from=":J5_21" to="E6" fromLane="0" toLane="1" dir="s" state="M"/>
    <connection from=":J5_21" to="E6" fromLane="1" toLane="2" dir="s" state="M"/>
    <connection from=":J5_23" to="E4" fromLane="0" toLane="3" dir="l" state="M"/>

</net>
