<?xml version="1.0" encoding="UTF-8"?>

<!-- generated on 2024-04-07 23:37:33 by Eclipse SUMO sumo Version v1_19_0+1584-f4acdb10a47
-->

<configuration xmlns:xsi="http://www.w3.org/2001/XMLSchema-instance" xsi:noNamespaceSchemaLocation="http://sumo.dlr.de/xsd/sumoConfiguration.xsd">

    <input>
        <net-file value="v1.net.xml"/>
        <route-files value="v1.rou.xml"/>
        <junction-taz value="true"/>
    </input>

</configuration>
